version 2
1
1
.ac dec 100 3.5Meg 7Meg{return}.kicad adjustpaths{return}.save all{return}.probe alli
0
